20 20
#....#...#...###.##.
....##..##...####...
.##....##.#.###.#...
##....#....#.......#
....#.#T..####.##..#
.#.####.....#.#..##.
#.#..###...#.#....#.
..............#.###.
#.#####.###..#..##..
#..#.#.......#.##.##
.#...#.####.#.#.##.#
..#.#...###.#..#.##.
..#..#.#...#.#.##...
....#..#..#...##...#
#.#.#..#.##.#..###S.
.##...##.##.#.##.##.
###..#####...##..#..
......#......#....#.
#..#....#..#....#...
.#.#..##.........###
