20 45
#............#..#....#.......##.#.....####...
....###.#.##.#..##.##.....##...........#.#...
#....#....#...#.###.#..#.#..##.#..#......#...
.#......###.###....##.........#............#.
.##....###...............#.#..#....#.#.#.....
....#.#.#.##.#....#...#.#....#.....##.#...#..
.#.....#.#.#..#.....#.........#...#..#.#.....
........##..##.#..#.#####..#...#..#...S....#.
....#...#.#.....#..................#.....##.#
.......#.....#......#....###.....#...#.#.#...
#.....###.....#.#.#.##..###...#.....#.#....##
..#....###.....#....#.#.#....##...#..##....##
.......#.#...........#.#..#..#.........#.....
.....#..#.##..#.##...........##...#....#...#.
..#..#.##.#..#.#..#..#.......##.#..##..#....#
#....#.#.#......#.##...#...##....#.....##....
.##.#.....#...##..#..#.#.........###.....##..
.##.....#..#..##.####..........##.#..##..#...
.#...#.#...##....#..#......#.......#.##.#....
###.#..#.##.#.....#...#.....#..#.............
100
DOWN
RIGHT
LEFT
DOWN
LEFT
RIGHT
DOWN
RIGHT
LEFT
UP
LEFT
UP
RIGHT
UP
LEFT
RIGHT
DOWN
LEFT
RIGHT
UP
RIGHT
UP
DOWN
RIGHT
LEFT
RIGHT
DOWN
UP
LEFT
DOWN
LEFT
DOWN
UP
LEFT
DOWN
LEFT
DOWN
UP
LEFT
UP
RIGHT
DOWN
RIGHT
LEFT
RIGHT
LEFT
UP
LEFT
RIGHT
DOWN
UP
RIGHT
UP
LEFT
DOWN
UP
DOWN
UP
RIGHT
LEFT
RIGHT
LEFT
DOWN
LEFT
UP
RIGHT
DOWN
LEFT
RIGHT
LEFT
UP
LEFT
UP
RIGHT
LEFT
UP
LEFT
RIGHT
LEFT
DOWN
RIGHT
LEFT
UP
RIGHT
UP
DOWN
UP
DOWN
RIGHT
DOWN
RIGHT
LEFT
UP
RIGHT
UP
RIGHT
DOWN
UP
DOWN
RIGHT
