90 100
..#.#......###...###..#.####.##......#.....#.###..#....#.....#..###..#.##......##..##...##.....#.##.
.#.##.#..#.#..#..###.#.#.......###.#..#.#.#..#.##.##...#....###.##..#..##.#...#.#.....#.#....##..#..
...#.#.###.#...#......T...#####....##...#.....#.#..###..#....##........#.#..###...#..##.#..#.#.###.#
...#.#.#..##..#....###.....##.#.#...###.#..##..#.###..###....#................#..##.....##....#.#.##
..##....#.......##.###....#..#..##.#.##......##.#.#...#.##..#..##...#...#.#..#.#.#..#.##...##...#.#.
.##..#...#.....#.#........###...........#.###.#.##.....######....##.##...#.##.....#.#..#.....#.#....
...#...#.#.......###..##.#..##.#.........#...#.#.#...###..##.#.##...#...#.##..#.#...#..#.#.###.#....
...#.#.#...#.#.#.#..#...#...##.###..#.###....#.#.#..#.#..#.....#.#..#.##..##..#.###.#.....#.#.......
...##..#..#.#.......##..#...#.#...##.#.#.#..#.....#....#..#...#.##.....#.##.#.....#......#....#.....
...###.#.#...####......##..#....#.##.......#.#....#...#....###.#.....#...##.#...#.#.#..#..###..###..
#..#..#.##...#.....#..#...##...###.##.#...#.#.....#.##..###..####.#..#..#.##.##.#.##..#.#####.#..#..
####..#......###..##.#.#..#.#.....#............##.#..#..#......#....#..#..##.##.###.#.#.#.###....#.#
.##..##...#.#..#.#.....#...#..#.#.#...#.#.###....#.##.##..#..#........###.##.....#...##..##....##.#.
...#........#.......#.#.#.....#.###..##.##.##..#..#.##.#..#..##..#...##..#..##.#.###.#...#..#.#.###.
.....##.....#.#..####.#.#..##.........#..###...###..#......#...##..###.##.#####..........###.###....
##.#.##...#......#.#.#.#........##.#..#......####.##.....#.#.......#.##...##.#...##.#.....##.#.###..
.#.#...#....#....##.#.####.#..#......##.#...###..#.###..#..#..##......#..#......##....#.....#.##.#.#
##.#..#.#....#..#...........#.#.#.##....##...#..##..##.#.#..###..#.#.#......#....#....#.#.###.......
.....#.....##..#..#.####..##.##..#....#.###.#.#...#.#.###....#......#..#..##.##...##.##.###.#...#.#.
#..#..#..##..#....#####.....#..#...#..#.#..##..#...##...#.#..###....#...##.####.#.#...##...##.####.#
..###.######.#.#....#...##.....#...#.###...##..###.#.##..###..#..##...#...##..#......#.#..#.####.#..
..#...#...#####..#####...#####.#.#.##.###.....#.#.....#..#..#....#.##.....##......#.....#..##..#....
#.###....##..#....#........#.#..#.#.#..#...#.##..####.##...####....#....##..#.###...#.###.......#...
#....###...#.#.##...#..##.#.##...#...##.#.#......###.....##..#.###.......#.#....##.#...#..#..#......
..#..###.###..#..##..##......#...##..####.##...#.####...#.#.##.##..#.#.#..###.#.....######...#.....#
.#####............#.#.#..###.#.##..#....##.###..##.##....#..#.#....###.#.##...#...##.#..#..#.####...
##..###..#...#.#...........#...##.##..##...#.##.....#.#..#..#...#.....#.#.....#....#.#.#...#........
.....##.####...##.##...##....##..#.##.##.##.#..###.#####.####..##..#....####.#.#.....#.#....#..#..##
####..#..........####..###....#.###..#.##....####.###.##..##..###..#.###..##..##...#.#....##.###.#.#
##..#..#..##.#.#..###...###.........#....#.#......#.##...##.....##..#...#...##.....#..###.#.#.#.##.#
#..#..#...#.#.##..#..#.###...######...##...#..##..##..##.####..##......##..........###...##....#.###
...###...#.###....#.##...#...##.###.#...#.#..###..#.....#.....###.....##.#..#.###...##.##...#..###.#
#.#..#..#...#.#...#.#.....#.....#..#..#..#...#..###.......#.####.#..#....##.#........#.#.....#.....#
##.#..#..##.#.#.##.##..#......#.#.#.#............#.#..#..#........###.........#....##..######..#..##
.......##.#.#..######...##.##.#.....##.###.#.###.##.#.#.#..#.#...#..##...#....#..##.###...##.....#..
#.....#...#...#.##....#.##..##..#.##......#....#......#.#...#....########.......#..##..........#..##
...###.#...#...#.#...##..#........#.#.........#..#.#.#.#..##.#.#...##.....#.###.....##.##.##.##..#.#
.##...#.....##.#....####...#..#..#.##.#.#...####...##.##..##...##.##.###.##..#.........##.........#.
..#..#####...##....#.####...#......##.#....#.#...#..##.....#...#..#..#..#.###...#.....#..#.#.##.##..
.##.#.####....##.#.##.##...#########.#....#....###...#.#...###..##...#..#####.####...#...##.#....##.
###..#......#..####.##.###.#.###.#....#.##......#....#...#...#.#.##.#.#.#..#.##......##..#..##.#...#
.#.#..#.....................##.##...####.####.#..#.#.#..###......#...#...#.#.##.#..##...#......#.##.
.###.#.#..#.#..##.....##...###.#.###....#.####.#........#.##....##.....##......#.#..##.....####..###
#..##..###.#..#..#....##.##....###.#....##..##....##..#.#....###....##.......######...#...##.##....#
.....#.#....#..#.#####.###.#.##.##.#.#..##.##...#.##...##.#.#.#......###.#.###...#......#..##.#..##.
#.........#....#.#...#..###..#.###..#..##.#.#...#....#..##.#########.#..##.#..#...#....#...#.##.#..#
#..#....#.##.......###....#.#....#.##.#####.#.#.#....###.#........##....##.#...#.#.....#.##.#.#..#.#
#.#.#.#..###.#...###..#...#........#..#.#...###......#..#.##......##..#.#..####....#.............#..
#.#.###....#..###......#.......#.#...#..##..#...####..#...##.#...####....###.#.....##..#.##..##.##..
.......#.#.#.#....#...#.#..#....###..#.#..#.##.#..#........##..##...#.#.#.#..#.#..##..##.###...#....
#..#.###.....###......##.#.#...##.#...##.....#.###....##...####......##..#.#.....###...#...#.....###
.#...#.#..##.#.#.#......#.#..#.##.##...####..#...#.#.###..#.#...#..#..#.##...#.....###.##..##..#.#..
#.#.#.#.#....#....#.#.....###...#...##.#...#...#..#.##...#...##.##.#.#......####.#..#..#....##...#.#
#.##.###.#..###.###......#..##...#.......##....#..#..##.#.#...#...#...#.##........#.#..#......##....
##..#..#..##..#.#.#....##.#..#..#...####....#..##...##.###...#.#.....#.####..#..#.#........###....##
.##....###..#..##...#.###.##..#..#...#.###...#..##...#..##.#...##..#.##.###.##.#..##...##....#....#.
#.#..#..........##..#.......#.#....#.#.##.##...#..#.....#...#.....#...#....#.##..#.#......#.#....##.
#####...#.#...#.#.#..#.#..##..#..##..#.#.###.###.#..##.##....##..#.#.#..#..#.#..##.#.#.#.###..##..#.
##...#...#..#.....###...#..###.#.#.#..#.##..##.#.#.#....#.#.###.###.....#.#...#.#.#####..#.####..#..
.####.#..##.###.##..##.......##.#.#....#.#.##.#....#......#..######..#.###.#.#..#.###.......##..##..
..#..#...###.##.######...#....#.....#.#.#..####.#.##.###.#..#.##.#....####.###...##.#.##.#.#.#######
....#..###.#.#.###.#.##..##....###..#.#.....#.#.......#..##.#....#.#.#####.#####.......#.....#..#...
.#..#..#..#.#..##.#.#.#.#..#.#..#..##....#..#...#..#..##.##.....#...###.....##..#.#.##...###..#.##..
.#.###.#...#......#.#..........##.#.#.#...#..####...#####.#.##.###.##...#..#.###..#.#...#...###....#
###.#.#....###.#....##....###...#.#.#######..#.##....................#..#.#.##..#..##.#..##.....##..
...........#.#..........#.##.##.#.......##.#..####.#.......###....##.#.#...####.#..###....###.###...
.#.##.#.###..#...###.....#.....##.##.##..#........##.#...#.##.#.###..##.####.....#.#...#.#..##......
...#.#..##.##.#....#....##..#..###.#.##.....##.....#.#...#.#.....###...#..#.#.#.....##....##..#..#..
.####.#...#.##.#..###..#.#..#.####.#..#.........#..#.##.#..........#..#.#####....###...#...#...#.##.
..#.###.#....##..#.#..#..##..#.#......#..##.#.###..###..#.#......#.#.#.#...##...###......#.#.##.##.#
.#..###.#.#...####...#.##.....#.#.##...#....#.######.#..#.##.##.###..#....##....#.#....##..#......#.
.....##.#.#..#..###..#.###....#.#..#.#..###..##.#.#.##...#.#..###.##.....#.#..###.#.##.#.#.#..##...#
..###.#......#.##......#...##.#...#..#....#.#.##.#.#.....####.#.#...#.#...##.....##.##.##.#.####.#..
######..###.#...##.####.#.#.###.#.#.#.#.###..#.....##.##..#...#....#.......#..##.#####.#...##...#...
....#..#..#..#......##.....#..#..##....#...##..#...#.#..#.......#..#.##.##.#.#.###..###.##...###..#.
######.##.###..#..#.##.####.###.....##..#.#.......#.#..#.#.#.#.##.....##...#..###.##.##...#.#.....#.
...###...##...#.#.###......##..#.#.....#...##...#...##...#.##.#.####.....###.#.#.########..#.#....##
#..#....#...###....#.##..#.#.##...####...#...###.......##.#..#####.........#..#.#..##...######..#..#
..###.###......##.#......#..#.....#.....#.#.####.#....#..#..#...#.###.#.#.###.#...#..###......#.###.
.#...##.....#.....#.#.#..#..##....#.##...##.##....#.#......####......#.#.....##....##...#.#.#....#..
......#.#....####.###.#..##.....#..##..#...####...###...##.######..##.#....#.#.##.##...#..#......#..
#.###..#..##.###..#..#..##.####....#...####.#......#...##.......#####...#....###.#...#.#.##....###.#
.....#.#...#.#.##..#..#...##.#.##.....##....#...#..#.#..#..#..#...##..###..#...##....##...###....##.
..###....#..#....##......#.........###.#####.#.##..##..###...###.......##.#......#..###.........#...
.#..#.##.##.##..#.....#...#...#....##..#....#..#.##....#....#....###.#.#.#..#..##..####.......#..###
..#..###.#..##....####.#.#.####..#....##.....#.#.......#..#.########..#.##.....####....###.....####.
.......##.#.....#..######.##.#......#.#...#...###..###.##....#..###..#..#.###....##.##....##..#####.
##.##.#..#..#..###.....#.##..#.#.#....#..###.#.####....#.....##....###..#..#...#..##.......####...#.
.....##.##...#..#.##......#.#..##..#.##.##.........#...###.###................#..###.##..##...##...#
.#......#.#.##.....#..........#............#.#..#............#.......S..#..###.....##....##.#...#.#.
