15 20
.#.#....###..####.#.
..#...##..#..##.....
..#.#.....#.#...##.#
###....####.#...#.##
..#.#...#..#..##.S.#
##.#.#.#...#.......#
##.#.#....#..##...#.
.#.###....#....###..
....#..........#..##
.#.#..######.###.#.#
.###.#.#.#.##....#.#
.T.#..######..#....#
##.....##...#..#.#..
...####.#..###...##.
#.....#..........#..
