100 90
...#.....#...#..##...###.#.#.##.....##.#.....##........#.#.#..#..#...##....#..#..#..#.....
#....#.#......#...#.##...#..#..#.##...###.#..##......#......##.#.......#...#......#.##.#..
#..#....###.##....#..#.##.##.##.###.#..#######.##..##.####.#......#..#.##..#.#.#...###..##
#.##..#..#.#.#......#..#.....#...#........#...#..#......#...#..#..#..##..###..#.#..##.#.#.
#..#.......#..#.##.######..#...#.##.#.#.....#..##.##..#...#..#.............#...#..##..#.##
.#........###..###..##...#..#...#......###..#...#.....#.......##.#.##.#.......#......#.#..
#.##.......##....##.#######..#..#..#.#.........#..##..#..#..#...##.#..#.##........##.....#
...##.##......##.#.##.....####....###.###..#....#.###.##.#.#...##......#..##.##.#.#.##....
...#..#.#..#...#.#.#.#...#...#.#.#..#.#...#..#....###..#...##.#.##.#.#.#....#.........#...
..#..#.......#...#.......#...#.#.##...##.##.#####...#....##.#.##..##.#.#...#..#.....#.##..
.#.#..#.#.#.#..#.......##....#.##.#...#..#..####.###..#.....#.#...#..#.###.......#....####
.#.......#.#.#......#..##.#.#....###.#....#.#.....###.#.....##.###.#..##....#.#...#.##.###
..##.#..#####.#.##...#...###.....#.#.....#.##...##..#.####.##.#...#.##.###......#..#....##
.#..#.#.###...##.###..#.#####.####.#...#.###..##.......#.....##...#.#.#..###.#..#.##.#...#
###........##.....#.###.###...##...#..#.#....#..#.##..#....#..##....##.##..#..#..#.....##.
.##...#.###.#####...##.##..#.....##.##...#.#..#....#.#.#.###.#......#.##..#.###..#.##...##
.##.....####.#.....#......###..#..#.#####....##...##.#..#.##.#....#..#.#.#...##...####..##
...#.#........##.#.#...#.##.#.#....###....####.....#..##...#.#..##...#.#...#.....###...##.
.#...#.#.#.##..#....#.##.......##..##...##.#.###....#.##......#..#...#.#.#......###.####.#
#.#..#..#.#.##..#...##.#.#..###.#.....#.#......##....#.#####..##.....#....##.##.....####..
##.###...##.##.#.##...##.##.......#..#....##..##.##.#.###.##.##.##.##....##.#...####...##.
...#..#######.####.#..##....##.##.#..#.#..#.#..###...#....#.#....#.#....##.#.##.##.###....
#...#.######.....##.##.#.........#.#..#..#..#####....#....#...#..#..##..###.....#.##......
.#......##....#....####.#......####.....#....####.#......##..#..##.#.#......#....#.##.....
.##...#..##.#.............##.#..#..#.#..#..#.##.......###.#.##.#.....##.##.......###...#..
#..#..###..###.#....#..#.#.#.##.....####.###..#..##.####....#.#.#.##....##.##.#....#..#.#.
..##.#####.####.....#....###.T.####....#.#..#...##.....#...#.#.####...#.#.......#.##.#..##
......#.##.#....#..##.#...#.##.####..####.#.......#..#.#.##.#.#..#.##.#......#.#.#......##
.##.#..###.########.......##...##..##...##......#..#.#.#..#..........#.#.##....#.....#....
.###.####..##..........#.#..######..#####..##......#..##...###....#.#.#.#.##.##..#..#.#...
...##....#..##..#..##.##.#####...#.#....##.#.#.....#..####........#.#...#.....###....#.#.#
.##.#..##..###.##.#..#.........####....#..#.#.....###....##...#........##...#.#..#...####.
.#.###...#....####.###..##..###......###..#....####.#.##..###.#.#..######....####...###...
.#.#......#..#####.#..#.###.##.##...#.#..##.#.#.##..#.###..#....##.##.#.#....#.#.......#.#
.#.#...#.##.#...........#..#.#....##.##...#..##..#.##..#..##..##.#..#.##..#.##.#..##.#.##.
#.#.#######...##...####.......#...###..#......##....##..#.##.#......##....#..#.#..#.#.....
.#.##.#.#.##.....#..####.#..#.#..####.#...#.....#..##.......#.#...##..#......#.##..#...##.
..#.##.##....#.#.#..###.....##.##......##...#...##.......##.#....##..........####.##.##.##
..#.##.#...#.###.###.......##........#.#..####...##....#.#.....##...#....#....#...##.#.###
##...#####...#..#.#.#...##.##.#.##.#..####.#.##.#.#.....###.####..##..#...#....#.#.#.....#
#...#####..#..###...###....#.#.####.#.#.#..#...##...##...#..........##..###.#.##..##.#.##.
#.##.#......#...#...#.####.#.....###.#.#.#.#..##..##.#...#..#....#..####...#...###.#.##..#
...##..##..##.##....#.....#...###..#.#.#...##..##.....#.##..#...#.#.######..###...###.##.#
......##..##.........#...##..#..##.#.#......##...##.##...#...#...##.##...#..###.#...##..#.
..#.#...#.####...########.##...#.##......###....####..............#.#..#...#.##...........
..###..#...#.##..###...#.##.##.....#.#....##.##..###.######.#.....#.#.##....#....##..##.#.
#.#..#...###.#..#....#.##..##.#......##.#.......#.##.#..###.#...#.##.#.#....#..##......##.
....###.##.##.#....#...####.##.#.#.......####....##..####.###.##...#.#.#..###......##.....
......##..#.##........#.......###..#.###...####.....###....##.#....##.#..##.###.##...#....
..#..#.###.##..#..###.....##.#.########....##.#.....#.##....#.#.......#..#....#.##.#..#.##
#...#...#..#.....##..###..#.##.....#...##.#....#..#..........#......#..##.#.#..#....#..#.#
#.....#.#.......#..##......#.#.#..#.#.#.#..#.#.#..###.#..#..####........####....##.####.#.
#......##.#...#.....#...........#...#.#.#..#....#.#....#....####.....##.#..###.###.#.#.#..
.#.###.#..#....##...#....#.##..#..##.##..#.....###..#..#....##..#......#..##..#.##.#.#...#
.#....#..##.........##..#.##..#..#.#....#.#..##.###....#.#.....####..#.....#.#.#.##...##.#
..##.#.###.#..###......###..#.##..###....#...##..##.#...#..#....#.#...#..#..####....##.###
##.....##.##.#.###.....#..#..##.#....#......###.######..#.......#.#....##...#.###....##.#.
.##.#.#......##.........##.#..###.....##..####.#.#.#...#.###.#.###.##.#.#...#..#..##..##..
.##...##.#.#.#......##....#.#.###...##...###...............#.#.......##.##..#...#..#....#.
#.#....#..##...##.##.##.##.#...#..#.#...#...###.##...####.......#..#....##.#..#..##....###
###..............#...###..####.##..#.###....#.##..#..###...#.##.......#.#....#.#..#..##...
..##..#......#.#.#...#..#...#.......#...#.##..###.#..#####....##.....#..#.##....#....#....
.#...##..#.#.#...##....#....####.......##..#...##..#...#####..#.#....#.#.#####.###..#.#..#
#..##.#..##.###..#....##.......###......##..#...###..#.#..#..#.######.##..#.#..##.#.##..#.
..####.....##..#..#.#.....#.#...##..######..##..##...##..##.....##.#.##..###.#....#.#.##.#
..#....#...#.#.#..##.###...#........#.##.#....#..#..#..#.........#.#######...##.#.#..#..#.
..##......##..#....#.#....####...#..##..##..#..##..#..#...#.##..#...#...###...#.#...#####.
....###.###.##.#..#....###.....##...#...#.#..#..#..##..#####.#....###.....##....##..#..##.
###.#.#.#.....#......#..#.#.#..#......###......#.....#..#..#..##......#..#####....#...#..#
....#..##.##...#..###.#.#.#.#..###..##.#....#.#....#..##.##..#..#..#.#.#.....#.....##...#.
#....#........#..#.##.##..##.#.#...##.##....#..#..#..##..#..#.#.....##....#####..#..##....
.#..###.#..#..###.#..##...##.##...##..#..##.#.###....#.#..........#.##.##.#..##....#..####
.###.#....#####.#......###.###..##.###..##.....##.##...#....#.#.##..##..#..#.......####.##
#..#..##.......#....#..#.###.###..##.###.#.#.....###...###.#.###.#.......#............#.#.
#..#.........#.#.#........##.##.......#..........#......#.#.###.#......#....#.#...#.......
##..####..##........#..####......#.######.#.#.#....#.########..##.....#.#.##.....####.###.
#.##..##..#......#.##.....#....#.#.######.#.#.##....#.#....#..#.#.#.......#....#..#..#..#.
#......#.#..#.##..##.#....##.##.#..#.#...#...#.#####.##......#.#..#..#.###..#..#...###....
....#..##..#.##..#.##..##...#.#..#.##.#...##.#...#.....###.#..#..###.....#...####..######.
####.#.#......##########....##..##......#..##.#.#.......#.##........##..#.....##...#.#.##.
.....#..##.#.#..#....#.####.....#...#........#...#.#..#.####.###..#.##..##.......#.#.##..#
##.#.#.#......##.###.....##.....###.##.###...##...#.#.#...#####.....#...##...#.##..##...##
.......#.#.##....#......#######..#.#...##....##.#..#..###.#..#..#.###....########...##...#
...###.###......#.........##..#.###.###.##.#..#...###..............#...#....##.......#....
.#.#...##.#.#.##..###.#.......#..##.##.#.####.###..##.....#.#...####.......#.#.#.......#..
##.###......#....##...#..##.####.........#.#....#..#...#..#......#####...#.#....##..##.#..
#.#...#..#..##.....#....#.####.#.#.#......##.##.......#...#...#...#.##.#.#.#......#.#...##
..#.#..#...#.......#.#.###.#.###...##.#.#....#...##..#...##.#.#....#....####..#..##..#####
##.....#..#....#..#.........###.##....##..##..##.......#........#........####.#.#..#.....#
.#####...#.##.#....###....##..##.......#...##..###...#.#####..##..#.#.....#...##.#...#..#.
.##.....#####.##.#.#....#..#...####.##.##...#.#..##.###.#.#.#......###.###...###.#..###...
.####....#...#.#...#.##.....#.##.....###........##..#..#...#........##.#....##...#.#.#..#.
.#...#....#.#..##.......#...#.##.#####...#.#..#.##......#.#.##...#.##...S....#...#.....##.
...###.##..##.###...#..#......##...###......####....##.#..#..###.....###..#..#..#.#.###...
##.....#.....##......#....##..#......#..###...#.##...#.##..####.#.###.#..#..##..####..#.#.
..##...#.###.##..#.##.#..##..........#...#..#....###...##..#.....#.##.#.#######.........#.
.###...........##..#.#.#.##.#.#......#.##.#.#.#.#..#...##.....#####...#.#.#.#..#..##...#..
.....#..##.....##.#.##..#...###..#..#..###.##.#.......####.#...#..##.##..#.####.##..##....
..##..#.#.###..#.#..##.#.#.#..###....#.#..#..#.....#.#..#.##....#..##.....#.##......##.#..
.#...#...##.##.#..#.####.#..#..##.#..####..##..#....#.##....#.##........###.#.###...#.#.#.
