50 20
..#.#....#....#..###
#.....#..#.#..#.....
.#.#..#.#...#.###.#.
...#.#.#.##.....#.#.
....#..#...#.......#
.##....#...#..#....#
##............#.#.##
#.#........#...#...#
#...##..#..#.#......
....#...#..###....#.
#....#..#..#...#.###
#..#S##....#.#.##.##
................#..#
#.........#.###.##..
.##......#........#.
......#..#...#.#....
.#...#...#.....##.##
#....#..###.##..#.#.
##....#.....##..#.#.
..#..............##.
.##.........#.###.#.
.....#.#..........#.
.###.......#..#..##.
#.#....#......#...#.
.#.#..###.#...#....#
.#....##.....#......
.......#...##...#...
..#..............#..
..#...#...#..#.#.##.
...#.....##.#.#.....
.##....#....#.#...#.
#...#.....#....#..#.
.......#...#....#.#.
.#....#...#...##.#..
#..##.#.##....#..#..
..###...........#.#.
#...#.#..##...##...#
.........##....#....
....#........##...#.
..#.#.#.....#.#...#.
....#.#...##..#.....
......###..#......##
...#....#....##..###
.##...#..#...#......
......#.....##...#..
.###...#....#.......
#.#......##.#...##..
....#....#.......###
......#..#..#.#.###.
..#..#....##...#....
30
DOWN
LEFT
UP
LEFT
DOWN
UP
LEFT
DOWN
RIGHT
DOWN
UP
DOWN
UP
RIGHT
LEFT
RIGHT
LEFT
RIGHT
UP
LEFT
DOWN
RIGHT
UP
DOWN
RIGHT
UP
DOWN
LEFT
DOWN
LEFT
