100 100
###.####.#.....#..#.#..#########.#..#..##..#.#......#.#....#..#..#.....###..#.#..##.###..#...#.....#
..#...#..##..#.....##.#..#..#.#..#...#...*#...###.......#####..##....##..###.#....#.#.#.......#....#
..##.....#...#..#....###.#.#.#.....#..##..#...#.#.#####..#.##..##.#..#.###.#.#..####...##..#.#......
..#.#.#.#.#.###.##...#..##.....#####..#.......#.....##..#.#.#....###...#..#..#...####.#.#....##.##..
..##..#.##..#.#..##...#.#.##.........#.#....##...#....#...##.##..##..##.....#....#.#..##...##......#
##..#...#....#.#...##.#####.###...#.#.#..#.....##..#.#....#...##...#.#..###...#....##....#...#.#.#.#
#........#####.###......#....#....#.###.#...##..####.##.#..#......###.#..#....#....#.##...#.#..###.#
###.....#.##..#..##...#.#.#.#.#......##....###.#......##.#..#...##..#......##........#.#..######.##.
#.#..#..#.#..##..#....#.##.######...##.#.S....#......#...##.....#....#.###..#.#.##...##....#..###.#.
###.#....#.###....##.##...#...##..#..##.##..#####.#.#.#.#.....#.#..##.###.##...####..........#..##.#
####....#...#..#.#.#..#.##..##....#......##....#.#...#..#...#...#.#.#.#.####..######...#..#.##....#.
##.......##.........#..##.#.#.....#...###....##...##....#..#..#.#.......#########..###..####......#.
##.#.###.#..#...##.#...###....####.##..###....#.#.##..##.#..#.#............#####..###.#.##.#.#......
###.##.##..###..##..#.#.##..####.###...###..#####....#.#....##.##.#..##.#..##...#.......#.##.#.#.#.#
.#..#.##.#...#....##.#.........#.##.......#....###..#####...#.#.#....#......##...#.##.#######.#...#.
..#..#....#...#...#........##.....###.....#.##.#.#.#...##.#..##.#...#........##...###.......##...#..
...#.#....#..##..#....#..#..#.#..##..####......#.###.###.###.#.#......##...#......##...#.#.#.......#
#....##.#.#.#....#.....#.#.....#..##....#...####..#.#....#.#.###...#.#.#....###.#......#.##.###.#..#
..#.###.##.#..#..#...#..#..#.#.#.#..##.#..#...#...#.#..#.#.#......#..#..##.#..#.#.###.#..#..#.......
...##....#...##......#...#...####.##.#..#.#.#.#.#.#.#..#....#.#.#.....##...###..#...#..##.....###...
#...#..##.....#.##...#..#.#.#..#....#....##...###.####.#.#.#..##..##.#.###..#...#...###.##..#...#...
..#..#..#.......##.......#...#..##...##...#...#..##.#.#..##..........#.....##.......#.##..##.#.#....
#.##.####..##...#.###.#.#.##..#.......##..#..#.#.####.#.#.....#...########......#.#..#.#..#......###
.#....#..#....###.####.#.##.#..##.##..#..##.#..###...#..#.##..#..#..#...#...##.##.#...###....#..##.#
#..###...#.#.#.##.##.....#.###.#.#####......##.###..#..#..#..##..##...............##......#..#....#.
#......#.#.##....#.#.........#..##.##..#..#....#####...#.##.####.#####....##.##.#......#.#..#...###.
....#.#####...##.#..##.#.#..#..#..####.###...#.#...#.##..#.#...........##...#.......#..#.##.#.##.#..
#...#..##...##...#...###..##..#.##...#.#.###..#.###..#....####.#....#.#.#.###..##...#.#....#..##..##
.....##........#...#..####.#..#.....#...###.#.##.##########.....##..#...........#..#.#.##..#.#..#.##
.####.#..#..##.###.####...##.#.........#...#....#.####...#......###..#...#...#..#..........#...#..##
.###..#.##.....##..###....###.####.##......#..#..#.#.#...#.#.#.##.#.....##...#..######.##..#.#.#.#..
..#..###.#.####.##....##.##...####........####.##..###...##...#...#..#...##...#.#.#.##.###.#####...#
.###..##.#.#...#.#..##..#.#.#...######.#....#..#...##...##..#.##......#.###.##.###.#....#.#.#...#...
.#.##...#.#..##..#..#.#...#.##....#.#.#.#.###....#..#.#...#.##.##....##...##..######.#...#.#.##.####
...#.#..#...#.#...#......#..#......#..##...#..#.##...#.#.###..#..###.#.###..#.#..###.#.##.#...##.#..
...##....#...#.###.#.#.#..###..#####..#.##....#.#.#..#.#....##.#.##.#..#.##....#.##..#.######.#.####
.#......###....#..#.#..###.###...#...###...#....#####..#.#......##.#..##.###...##...###..##..##.#..#
.#.....#.#......##.#....#.#..#.#...##..##.#..####.###.....#..##.##.###.#...#.##....##.###....#..##..
#.#.#...##...###.#...##..#...####....#..####.#.#....#.#...##.#..#.##..#.#....##.....##..#.##.##..##.
...#.#.##......#.#.#####.##....######....#...##..##..#..##.#...#.##.##...#####.##..##...#.##...####.
#.####......###.#..#......#....#.##.##.#..##.##.#...#...###.#.....#...#....#.##.##..#...#.#.#..###.#
#.....#...#..####.#.#..#......#####.#.#.#...####.##..#..#.#.#....#.#.......#..#..#..######.###....#.
.#..#.##.#..##...#######...##...######..##...#.#.......###....#.#.#..##..#......#.....##..###...#.#.
.##......#......#.#.#...#.......#.####.###..#.#...###....####.######...#.....##...###.#...#.#..#####
.#.#.......##.##...#..###..#.##.#.#.##.......###..#..#......###........#..#..#.#.#..###.#.##.#.....#
#..#....##..#.#.##...#.#.##..#..###.#.##########....##.##.......##...#.####.#.#.###.#..#..#.#.#.#..#
####....##.#.#...##..###.#.....#.##.#.##..#....###.#.##.#..###..##.##..#.####..##..##..#....#.....#.
#.##...#....#...#.##.....##.#.#..#....#..####.....#.#....#...#.#....###.......###...##...#####.##.##
#..#..#......##..#..#.##...#...#.##..#.#.##...#...##..##.#.#.##...##.##....#.##.#.##..#..#....#...##
.##.#....#.##.###.##..#..##...###.####.#......##..#....##..###.......##.##..#.#.#.#.#.##.#...###...#
#..#.##....##..#.#.###.##..#.#.##.##.#.#.##........##.#...###.#.####.####.####........###....##.#.##
..####..#.###.##.....##..#.##.#.#..##......#.###.#.....#..#..#.####..####....#...#####..#..#..##....
.#..#.#...#.....##.....###...##........###.##.#.##..#..##..#..#...##..#...####..#...#.###..###..#...
.....#.#........##..#.##.....##......#......#.##..##.#.#.###.##..###..#.##......#...............#.#.
#..###.#..#...###.##.###.#####..##..########...##..#.....#.....#..#.#.#.#...#..#..#.#..#.......##...
#..###.#..######..#.#..#....#.###..#.##.#..#.......##..##.###.#..........#..##.#.###..#.....#....#..
##.#.###...#..#..#.##........#.#..#..######..####.#.###....#.#.#...###.#####.#..##...###....##.#.#.#
#.....#.#####..##.#.##....#....######..#.#.....#....#..###...#####..##..#...##...#.....#.##.....###.
.##.##.####.##.#.##..#.....#....##...###.#....##......##...#...##...#.##..##...#.##.#...##.###.###.#
...#..##...##.##..#..####..#..##......#..##.##.##.....#.####.#####..######.##.##...#....#.#.##.##.##
....#..#.##.##.....#..##.#.#...#.#...###....#.###.##.....#.#..#.#..#####..##..#####.#.#....#.###..##
.#..#.#..#.##.#.#.#.##...#.###.#.......#.###.#....##..#.#.#..######..#..###..##.........#..#..#....#
###....#...##...##..###.#.###.#####...###..##..#....#..#....#.##...###.####..#.###..###.#.#..#.##..#
..#.#####.#.#####.##..###.##.#.....##...#.....##.##.##..###.....#....##.#..##....#...#...####......#
#.###.#..###.#...#.###.#..#..#.####.#.....#.#.....##.##...#.#.###..#...#...##..#...#.....#.#.....#.#
####..#..#..#...###.##.#........#..#......##...##..####.#.#.##..####..###.#.#...#.#.##....###...###.
##..#.###....##.###..#..##.#.....#.###..###.##..#.##.###.#.....#.###...#....#.#..##.##......#..##.#.
#.....####...#...##.#..#####...####......#.#.##....#.####....#..#..##..#.#..#.....##..#.#.##......#.
##..####.#.#.....#..#....#..#...#.#........##.#####..#..........###.##...##.#.#..#.#...#...###.....#
#.#.#..#....##....##.....#..#.###....#.....#.##.##....#.##.......#.#...#...##...#..#....#.##.#..###.
...#.##..#.#...###..#..#.##..####.#.......#...#.##.#.#.#.#.#.#.#..#.##.##.......##.#..######..#..##.
.#...#.###..###..#....#...#.#.###.#..##.##.#.###...#.#....##...##.###..#.###...#....##..##..##..#.#.
#...#.#.##...#...##.#..#...#.#....###..#.#.##.......#...#....#.#........#..#.#.#####...#..#.#.##.###
...#.###.##..#.....#.##...##.....#..#.##.#.###...##.#.#.#..#.#...#.#.#.#.##...#.#...##.#.#....#..#.#
#######...........##..#.########.#.#...#....##.......###...#.#.##.#.###..#........###....#.#.....#.#
##.##..#..#.#......#...#.##.#.........##..###.#.#.##..#.....##.#....#..#.......#...#..##.#..####.#..
#.#...#....#..#.#...##....#..#..##..#...##.#........#...##.####.##.#...#...#..#...##.##.###..#.####.
.###..###....###.#...###..#..#....#.#.##....##.........#.###..##......#.###.##.#...#....##.##....#..
.##.#..#.##..##.#.#..##.##...#.###..#...#.#..#...#....#.##....####.#.######.##.##.#.#..#....##.##.#.
###.#.##........#....#####.....###...#.#.....#..##.#..###.#..#..###.#..#.#.#####.#.###...###....###.
###.#...#..#..#.##.##.###...#.#...#.##..##.#....#........#.#..#.#...#.#..##.....#.##.#.#...#......##
......#..#.#.#.#...##.#....#....##.#.......##.......###.#...#...#...#.......#.###.....#.#..#..##.##.
..#.......#..#....#........#.#..#...##....#.###..###.##...#..#.####....#.####...###..##.#.#......###
#####..#.##.######.....##.#....##...###...##..###.#..#..#..#.#.#..#..#...##.#.#....#.#...#.#.#....##
.#.#..###......#...#...##....####...#..#..###..##..#####......#....#......#..#....###.....#####.#..#
....#.....#####.#...##.......##.#..#.##..#...#..#...########....#..##.....#..#..#.......##....##..#.
#.....##.#.#.#.#.#.###.#.#.#####...#.#.#.##.##..##.###....#.##.##..#..#.#.#...#.#.#######....#...###
#..##.#...#.#...#.####..#.#.##.##...###...#...#....#.#.#..#.#.#...#.#.....#..##.#..#.....##....#.#.#
#..#.#......##.###.##.....#..##.##..#....###.#...#....#......##..#...#.###.#.#..##.....#..#.....##..
.####...#...#######..#..#...##...#.#.##.##.####.###..##...###.##.........#.##.#..#.#.##..###.###..##
...#..###.#.#.#..#..#..##.#.###.#.###.#.#.####..#..#.#.###....#......#..##.#...#.##...###..#.......#
.......##.##.#...####...##.#.#.#...#####.##..##.#.###...##..##.#..##.#.#....###..#.#.#..#.#...####.#
.....#.##.##..##.##..##.#.#..#.##.##...#.#.##..#.#.#..#.#.#..#...###...##....#.###..#......#.....##.
..#...#.#..###.###....#......#..####..#..##.#..###...#..###...##..#.....#...##...###........###..#..
.###..##....#..#.#####..#.##..#.#.###..##.##..#.##.#....##..##.#....#.###..#.....#..#..#.#...#..####
#..#.#.#....#.#..#.#...##..##..#.##.#....#....#.#.#.....#..#...#.#.###...##.#...#....##....###..#.##
#.#.....#.#...#....#####..#.##.#.####.#.#....#.##.###.##.##..####.#..#.###.#####..#.#.##.##.#.....#.
.#..#.#.###...##.#..#.#......##.........###..#.#.###......#....##..#...#..#..#.#......##.....###...#
.##..####...#..##.#.###.#...##....##.#.###...###...#.##..#..#..#######.###.#.##......#.......##...##
...##...#..##.#.#......#..##..##............#############.#...#.##.#..##..#...#...##.##..##.#.....##